AMOSTRA/RIM/Vaos.dss
! ==========================================================
! VAOS DE SAIDA — barra de MT da SE -> cabeceira do alimentador
! Derivado de CTMT.BARR e CTMT.UNI_TR_AT: a BDGD nao modela o
! arranjo interno da subestacao, so o vinculo logico.
! Cada vao e o disjuntor de saida do alimentador.
! ==========================================================
New Line.VAO_RIM01M1 phases=3 Bus1=rim01b1.1.2.3 Bus2=25423-9918945.1.2.3 Switch=y r1=0.0001 r0=0.0001 x1=0 x0=0 c1=0 c0=0
New Monitor.M_RIM01M1 element=Line.VAO_RIM01M1 terminal=1 mode=1 ppolar=no
New Line.VAO_RIM01M2 phases=3 Bus1=rim01b1.1.2.3 Bus2=25424-9940930.1.2.3 Switch=y r1=0.0001 r0=0.0001 x1=0 x0=0 c1=0 c0=0
New Monitor.M_RIM01M2 element=Line.VAO_RIM01M2 terminal=1 mode=1 ppolar=no
New Line.VAO_RIM01M3 phases=3 Bus1=rim01b1.1.2.3 Bus2=25987-12107050.1.2.3 Switch=y r1=0.0001 r0=0.0001 x1=0 x0=0 c1=0 c0=0
New Monitor.M_RIM01M3 element=Line.VAO_RIM01M3 terminal=1 mode=1 ppolar=no
New Line.VAO_RIM09W1 phases=3 Bus1=rim01b1_34p5kv.1.2.3 Bus2=25425-10841183.1.2.3 Switch=y r1=0.0001 r0=0.0001 x1=0 x0=0 c1=0 c0=0
New Monitor.M_RIM09W1 element=Line.VAO_RIM09W1 terminal=1 mode=1 ppolar=no
New Line.VAO_RIM09W2 phases=3 Bus1=rim01b1_34p5kv.1.2.3 Bus2=25427-9992916.1.2.3 Switch=y r1=0.0001 r0=0.0001 x1=0 x0=0 c1=0 c0=0
New Monitor.M_RIM09W2 element=Line.VAO_RIM09W2 terminal=1 mode=1 ppolar=no
New Line.VAO_RIM09W3 phases=3 Bus1=rim01b1_34p5kv.1.2.3 Bus2=25430-11383572.1.2.3 Switch=y r1=0.0001 r0=0.0001 x1=0 x0=0 c1=0 c0=0
New Monitor.M_RIM09W3 element=Line.VAO_RIM09W3 terminal=1 mode=1 ppolar=no
